Version 4
SHEET 1 2136 1368
WIRE 64 16 -32 16
WIRE 160 16 64 16
WIRE 256 16 160 16
WIRE 416 16 256 16
WIRE 544 16 416 16
WIRE 672 16 544 16
WIRE 960 16 672 16
WIRE 1216 16 1120 16
WIRE 1344 16 1280 16
WIRE 1456 16 1344 16
WIRE 1520 16 1456 16
WIRE 416 64 416 16
WIRE -32 112 -32 16
WIRE 64 112 64 16
WIRE 160 112 160 16
WIRE 256 112 256 16
WIRE 544 112 544 16
WIRE 672 112 672 16
WIRE 960 112 960 16
WIRE 1120 112 1120 16
WIRE 1344 112 1344 16
WIRE 1456 112 1456 16
WIRE 1120 240 1120 192
WIRE 1344 240 1344 176
WIRE 1344 240 1120 240
WIRE 1456 240 1456 192
WIRE 1456 240 1344 240
WIRE 544 256 544 192
WIRE 672 256 672 176
WIRE 672 256 544 256
WIRE 784 256 672 256
WIRE 960 256 960 192
WIRE 960 256 848 256
WIRE 1456 256 1456 240
WIRE -32 272 -32 192
WIRE 64 272 64 176
WIRE 64 272 -32 272
WIRE 160 272 160 176
WIRE 160 272 64 272
WIRE 256 272 256 176
WIRE 256 272 160 272
WIRE 160 320 160 272
WIRE 416 400 416 144
WIRE 416 400 176 400
WIRE 480 400 416 400
WIRE 544 400 480 400
WIRE 672 400 624 400
WIRE 1040 400 736 400
WIRE 1040 448 1040 400
WIRE 112 464 112 400
WIRE 160 464 112 464
WIRE 480 464 160 464
WIRE 416 528 416 400
WIRE 416 528 304 528
WIRE 640 528 416 528
WIRE 304 544 304 528
WIRE 640 560 640 528
WIRE -128 624 -128 576
WIRE 160 624 160 464
WIRE 304 624 304 608
WIRE 304 624 160 624
WIRE 416 672 416 528
WIRE 640 688 640 640
WIRE 416 720 416 672
WIRE 960 736 960 256
WIRE -128 784 -128 704
WIRE 256 784 -128 784
WIRE 800 816 576 816
WIRE 912 816 880 816
WIRE -128 848 -128 784
WIRE -48 848 -128 848
WIRE 144 848 32 848
WIRE 256 848 208 848
WIRE -240 912 -336 912
WIRE 32 912 -240 912
WIRE 256 912 32 912
WIRE 640 944 640 768
WIRE 640 944 576 944
WIRE 720 944 640 944
WIRE 960 944 960 832
WIRE 960 944 800 944
WIRE -336 960 -336 912
WIRE 256 976 240 976
WIRE -240 1008 -240 992
WIRE -240 1008 -272 1008
WIRE 160 1008 -240 1008
WIRE 240 1008 240 976
WIRE 240 1008 160 1008
WIRE 32 1024 32 912
WIRE 960 1024 960 944
WIRE -128 1040 -128 848
WIRE 160 1040 160 1008
WIRE -128 1168 -128 1120
WIRE 32 1168 32 1088
WIRE 32 1168 -128 1168
WIRE 112 1168 112 464
WIRE 112 1168 32 1168
WIRE 160 1168 160 1104
WIRE 160 1168 112 1168
WIRE 416 1168 416 1040
WIRE 416 1168 160 1168
WIRE 960 1168 960 1104
WIRE 960 1168 416 1168
WIRE 1040 1168 1040 528
WIRE 1040 1168 960 1168
WIRE 416 1200 416 1168
WIRE -336 1264 -336 1056
WIRE 368 1264 -336 1264
WIRE 528 1264 448 1264
WIRE 640 1264 640 944
WIRE 640 1264 608 1264
FLAG 416 1200 0
FLAG 1520 16 Vout
IOPIN 1520 16 Out
FLAG 1456 256 0
FLAG 160 320 0
FLAG -128 576 Vout
IOPIN -128 576 Out
FLAG 416 672 Vcc
SYMBOL voltage -32 96 R0
WINDOW 123 0 0 Left 0
WINDOW 39 0 0 Left 0
SYMATTR InstName V1
SYMATTR Value 60
SYMBOL cap 144 112 R0
SYMATTR InstName C1
SYMATTR Value 160ľ
SYMBOL res 528 96 R0
SYMATTR InstName R1
SYMATTR Value 2k
SYMBOL cap 656 112 R0
SYMATTR InstName C2
SYMATTR Value 26n
SYMBOL diode 848 240 R90
WINDOW 0 0 32 VBottom 2
WINDOW 3 32 32 VTop 2
SYMATTR InstName D1
SYMATTR Value VS-E5TX3006
SYMBOL ind2 944 96 R0
SYMATTR InstName L1
SYMATTR Value 10ľ
SYMATTR Type ind
SYMBOL ind2 1136 208 R180
WINDOW 0 36 80 Left 2
WINDOW 3 36 40 Left 2
SYMATTR InstName L2
SYMATTR Value 90ľ
SYMATTR Type ind
SYMBOL cap 1328 112 R0
SYMATTR InstName C3
SYMATTR Value 200ľ
SYMBOL res 1440 96 R0
SYMATTR InstName R2
SYMATTR Value 40
SYMBOL nmos 912 736 R0
SYMATTR InstName M1
SYMATTR Value IPB200N15N3
SYMBOL res 896 800 R90
WINDOW 0 0 56 VBottom 2
WINDOW 3 32 56 VTop 2
SYMATTR InstName R3
SYMATTR Value 10
SYMBOL res 816 928 R90
WINDOW 0 0 56 VBottom 2
WINDOW 3 32 56 VTop 2
SYMATTR InstName R4
SYMATTR Value 40k
SYMBOL res 976 1120 R180
WINDOW 0 36 76 Left 2
WINDOW 3 36 40 Left 2
SYMATTR InstName R5
SYMATTR Value 20m
SYMBOL diode 1216 32 R270
WINDOW 0 32 32 VTop 2
WINDOW 3 0 32 VBottom 2
SYMATTR InstName D3
SYMATTR Value VS-E5PX3006
SYMBOL res -144 608 R0
SYMATTR InstName R6
SYMATTR Value 100k
SYMBOL res -144 1024 R0
SYMATTR InstName R7
SYMATTR Value 3.3k
SYMBOL res -64 864 R270
WINDOW 0 32 56 VTop 2
WINDOW 3 0 56 VBottom 2
SYMATTR InstName R8
SYMATTR Value 1000k
SYMBOL cap 16 1024 R0
SYMATTR InstName C5
SYMATTR Value .1ľ
SYMBOL res -256 896 R0
SYMATTR InstName R9
SYMATTR Value 1.89k
SYMBOL cap 144 1040 R0
SYMATTR InstName C6
SYMATTR Value 4.18n
SYMBOL LT1243 416 880 R0
SYMATTR InstName U1
SYMBOL cap 48 112 R0
SYMATTR InstName C10
SYMATTR Value 160ľ
SYMBOL cap 240 112 R0
SYMATTR InstName C11
SYMATTR Value 160ľ
SYMBOL cap 208 832 R90
WINDOW 0 0 32 VBottom 2
WINDOW 3 32 32 VTop 2
SYMATTR InstName C4
SYMATTR Value 1ľ
SYMBOL npn -272 960 M0
SYMATTR InstName Q1
SYMATTR Value BC547B
SYMBOL res 624 672 R0
SYMATTR InstName R12
SYMATTR Value 500k
SYMBOL res 464 1248 R90
WINDOW 0 0 56 VBottom 2
WINDOW 3 32 56 VTop 2
SYMATTR InstName R13
SYMATTR Value 350k
SYMBOL ind2 1024 432 R0
SYMATTR InstName L3
SYMATTR Value 3.6ľ
SYMATTR Type ind
SYMBOL res 400 48 R0
SYMATTR InstName R15
SYMATTR Value 70k
SYMBOL res 640 384 R90
WINDOW 0 0 56 VBottom 2
WINDOW 3 32 56 VTop 2
SYMATTR InstName R14
SYMATTR Value 15
SYMBOL cap 464 400 R0
WINDOW 0 -34 40 Left 2
WINDOW 3 32 42 Left 2
SYMATTR InstName C8
SYMATTR Value 22ľ
SYMBOL Res 512 1280 R270
WINDOW 0 32 56 VTop 2
WINDOW 3 0 56 VBottom 2
SYMATTR InstName R10
SYMATTR Value 350k
SYMBOL Res 624 544 R0
SYMATTR InstName R11
SYMATTR Value 500k
SYMBOL schottky 736 384 R90
WINDOW 0 -4 32 VBottom 2
WINDOW 3 36 32 VTop 2
SYMATTR InstName D5
SYMATTR Value BAT54
SYMATTR Description Zener Diode
SYMATTR Type zener
SYMBOL zener 112 416 R270
WINDOW 0 36 32 VTop 2
WINDOW 3 -4 32 VBottom 2
SYMATTR InstName D2
SYMATTR Value BZX84C13VLY
SYMBOL cap 288 544 R0
WINDOW 0 -34 40 Left 2
WINDOW 3 32 42 Left 2
SYMATTR InstName C7
SYMATTR Value 47ľ
TEXT 992 -16 Left 2 !K L1 L2  L3 .99
TEXT -272 1352 Left 2 !.tran 1
TEXT -256 48 Left 2 ;Vin=12-60V\nVo= 80V\nIo=2A\nf=100KHz\nn=70%
